*Heading
** Job name: Job-1 Model name: dam_concrete_analysis_1
** Generated by: Abaqus/CAE 2023
*Preprint, echo=NO, model=NO, history=NO, contact=NO
**
** PARTS
**
*Part, name=PART-1
*Node
      1,           0.,           0.
      2,          3.5,           0.
      3,           7.,           0.
      4,         10.5,           0.
      5,          14.,           0.
      6,         17.5,           0.
      7,          21.,           0.
      8,         24.5,           0.
      9,          28.,           0.
     10,         31.5,           0.
     11,          35.,           0.
     12,         38.5,           0.
     13,          42.,           0.
     14,         45.5,           0.
     15,          49.,           0.
     16,         52.5,           0.
     17,          56.,           0.
     18,         59.5,           0.
     19,          63.,           0.
     20,         66.5,           0.
** ... 799 like lines cut
*Element, type=CPS4R
   1,    1,    2,  102,  101
   2,    2,    3,  103,  102
   3,    3,    4,  104,  103
   4,    4,    5,  105,  104
   5,    5,    6,  106,  105
   6,    6,    7,  107,  106
   7,    7,    8,  108,  107
   8,    8,    9,  109,  108
   9,    9,   10,  110,  109
  10,   10,   11,  111,  110
  11,   11,   12,  112,  111
  12,   12,   13,  113,  112
  13,   13,   14,  114,  113
  14,   14,   15,  115,  114
  15,   15,   16,  116,  115
  16,   16,   17,  117,  116
  17,   17,   18,  118,  117
  18,   18,   19,  119,  118
  19,   19,   20,  120,  119
  20,   20,   21,  121,  120
** ... 740 like lines cut
*Elset, elset=DAM
    1,    2,    3,    4,    5,    6,    7,    8,    9,   10,   11,   12,   13,   14,   15,   16
   17,   18,   19,   20,  101,  102,  103,  104,  105,  106,  107,  108,  109,  110,  111,  112
  113,  114,  115,  116,  117,  118,  119,  120,  201,  202,  203,  204,  205,  206,  207,  208
  209,  210,  211,  212,  213,  214,  215,  216,  217,  218,  219,  220,  301,  302,  303,  304
  305,  306,  307,  308,  309,  310,  311,  312,  313,  314,  315,  316,  317,  318,  319,  320
  401,  402,  403,  404,  405,  406,  407,  408,  409,  410,  411,  412,  413,  414,  415,  416
  417,  418,  419,  420,  501,  502,  503,  504,  505,  506,  507,  508,  509,  510,  511,  512
  513,  514,  515,  516,  517,  518,  519,  520,  601,  602,  603,  604,  605,  606,  607,  608
  609,  610,  611,  612,  613,  614,  615,  616,  617,  618,  619,  620,  701,  702,  703,  704
  705,  706,  707,  708,  709,  710,  711,  712,  713,  714,  715,  716,  717,  718,  719,  720
  801,  802,  803,  804,  805,  806,  807,  808,  809,  810,  811,  812,  813,  814,  815,  816
  817,  818,  819,  820,  901,  902,  903,  904,  905,  906,  907,  908,  909,  910,  911,  912
  913,  914,  915,  916,  917,  918,  919,  920, 1001, 1002, 1003, 1004, 1005, 1006, 1007, 1008
 1009, 1010, 1011, 1012, 1013, 1014, 1015, 1016, 1017, 1018, 1019, 1020, 1101, 1102, 1103, 1104
 1105, 1106, 1107, 1108, 1109, 1110, 1111, 1112, 1113, 1114, 1115, 1116, 1117, 1118, 1119, 1120
 1201, 1202, 1203, 1204, 1205, 1206, 1207, 1208, 1209, 1210, 1211, 1212, 1213, 1214, 1215, 1216
 1217, 1218, 1219, 1220, 1301, 1302, 1303, 1304, 1305, 1306, 1307, 1308, 1309, 1310, 1311, 1312
 1313, 1314, 1315, 1316, 1317, 1318, 1319, 1320, 1401, 1402, 1403, 1404, 1405, 1406, 1407, 1408
 1409, 1410, 1411, 1412, 1413, 1414, 1415, 1416, 1417, 1418, 1419, 1420, 1501, 1502, 1503, 1504
 1505, 1506, 1507, 1508, 1509, 1510, 1511, 1512, 1513, 1514, 1515, 1516, 1517, 1518, 1519, 1520
** ... 28 like lines cut
** Section: Section-1-DAM
*Solid Section, elset=DAM, material=CONCRETE
1.,
*End Part
**  
**
** ASSEMBLY
**
*Assembly, name=Assembly
**  
*Instance, name=PART-1-1, part=PART-1
*End Instance
**  
*Elset, elset=EOUT, instance=PART-1-1
 2320, 2420
*Nset, nset=NBASE, instance=PART-1-1, generate
  1,  21,   1
*Nset, nset=NMID, instance=PART-1-1, generate
 2401,  2421,     1
*Nset, nset=NOUT, instance=PART-1-1
    1, 3801
*Nset, nset=NTOP, instance=PART-1-1, generate
 3801,  3821,     1
*Nset, nset=NWL, instance=PART-1-1, generate
 3601,  3621,     1
*Elset, elset=WDAM, instance=PART-1-1, generate
    1,  3501,   100
*End Assembly
*Amplitude, name=HAMP
             0.,              0.,            0.01,         0.01265,            0.02,         0.01199,            0.03,         0.01133
           0.04,         0.01067,            0.05,         0.00981,            0.06,         0.00239,            0.07,        -0.00502
           0.08,        -0.01243,            0.09,        -0.01889,             0.1,        -0.01044,            0.11,        -0.00198
           0.12,         0.00647,            0.13,         0.00088,            0.14,        -0.01488,            0.15,        -0.02886
           0.16,        -0.02491,            0.17,        -0.02097,            0.18,        -0.01702,            0.19,        -0.01307
            0.2,        -0.00912,            0.21,        -0.00517,            0.22,        -0.00122,            0.23,        -0.00175
           0.24,        -0.00478,            0.25,        -0.00782,            0.26,        -0.01086,            0.27,         -0.0139
           0.28,        -0.01694,            0.29,        -0.01777,             0.3,        -0.00857,            0.31,         0.00064
           0.32,         0.00985,            0.33,         0.01906,            0.34,         0.02436,            0.35,         0.01496
           0.36,         0.00556,            0.37,        -0.00383,            0.38,         -0.0012,            0.39,         0.00588
            0.4,         0.01297,            0.41,         0.00553,            0.42,        -0.01641,            0.43,        -0.03836
           0.44,        -0.03705,            0.45,        -0.01426,            0.46,         0.00853,            0.47,         0.03132
           0.48,         0.03195,            0.49,          0.0267,             0.5,         0.02579,            0.51,         0.03501
           0.52,         0.04424,            0.53,          0.0344,            0.54,         0.02037,            0.55,         0.00634
           0.56,        -0.00601,            0.57,        -0.00131,            0.58,         0.00338,            0.59,         0.00808
            0.6,         0.00647,            0.61,         0.00082,            0.62,         0.01155,            0.63,         0.02473
           0.64,          0.0379,            0.65,         0.05108,            0.66,         0.05024,            0.67,         0.04785
           0.68,         0.03917,            0.69,        -0.00253,             0.7,        -0.04423,            0.71,        -0.07511
           0.72,        -0.05671,            0.73,         -0.0383,            0.74,         -0.0199,            0.75,        -0.01037
           0.76,        -0.01169,            0.77,        -0.01301,            0.78,         0.09478,            0.79,         0.07131
** ... 231 like lines cut
*Amplitude, name=VAMP
             0.,              0.,            0.01,         0.00296,            0.02,        -0.00508,            0.03,        -0.01312
           0.04,        -0.01526,            0.05,        -0.00224,            0.06,         0.01079,            0.07,         0.02381
           0.08,         0.02397,            0.09,          0.0136,             0.1,         0.00323,            0.11,        -0.00713
           0.12,        -0.01489,            0.13,         0.00731,            0.14,          0.0295,            0.15,         0.00557
           0.16,        -0.05042,            0.17,        -0.06469,            0.18,        -0.05115,            0.19,         -0.0376
            0.2,        -0.02406,            0.21,        -0.01052,            0.22,         0.00303,            0.23,         0.01363
           0.24,          0.0062,            0.25,        -0.00124,            0.26,        -0.00868,            0.27,        -0.01611
           0.28,        -0.01395,            0.29,        -0.00706,             0.3,        -0.00016,            0.31,         0.00673
           0.32,        -0.00395,            0.33,        -0.01574,            0.34,        -0.00665,            0.35,         0.01139
           0.36,         0.00808,            0.37,        -0.00354,            0.38,         0.00325,            0.39,         0.01686
            0.4,         0.01389,            0.41,        -0.00633,            0.42,        -0.02654,            0.43,        -0.04675
           0.44,         -0.0442,            0.45,        -0.02063,            0.46,         0.00294,            0.47,         0.02651
           0.48,         0.05008,            0.49,         0.04615,             0.5,         0.01974,            0.51,        -0.00667
           0.52,        -0.03309,            0.53,        -0.02177,            0.54,        -0.00216,            0.55,        -0.00498
           0.56,         -0.0124,            0.57,        -0.01239,            0.58,        -0.00723,            0.59,        -0.00207
            0.6,         0.00309,            0.61,        -0.02064,            0.62,        -0.04868,            0.63,         0.01433
           0.64,         0.07546,            0.65,         0.04873,            0.66,         0.02797,            0.67,         0.04101
           0.68,         0.02411,            0.69,        -0.03589,             0.7,        -0.09588,            0.71,         -0.0913
           0.72,        -0.05632,            0.73,        -0.02134,            0.74,         0.01364,            0.75,         0.04861
           0.76,         0.08359,            0.77,         0.11857,            0.78,         0.07445,            0.79,         0.02788
** ... 231 like lines cut
** 
** MATERIALS
** 
*Material, name=CONCRETE
*Damping, beta=0.00323
*Density
2400.,
*Elastic
 2.5e+10, 0.15
*Concrete Damaged Plasticity
 36.31,0.,0.,0.,0.
*Concrete Compression Hardening
  1.3e+07,  0.
 2.41e+07, 0.1
*Concrete Tension Stiffening, type=DISPLACEMENT
     2.9e+06,          0.
 1.94393e+06,  6.6185e-05
 1.30305e+06,  0.00012286
     873463., 0.000173427
     585500.,  0.00022019
     392472., 0.000264718
     263082., 0.000308088
     176349.,  0.00035105
     118210., 0.000394138
     79238.8, 0.000437744
     53115.4, 0.000482165
*Concrete Tension Damage, type=DISPLACEMENT
       0.,         0.
 0.381217, 0.00066185
 0.617107,  0.0012286
 0.763072, 0.00173427
 0.853393,  0.0022019
 0.909282, 0.00264718
 0.943865, 0.00308088
 0.965265,  0.0035105
 0.978506, 0.00394138
   0.9867, 0.00437744
  0.99177, 0.00482165
** 
** BOUNDARY CONDITIONS
** 
** Name: Disp-BC-1 Type: Displacement/Rotation
*Boundary
NBASE, 1, 1
** Name: Disp-BC-2 Type: Displacement/Rotation
*Boundary
NBASE, 2, 2
** ----------------------------------------------------------------
** 
** STEP: Step-1
** 
*Step, name=Step-1, nlgeom=YES, unsymm=YES
STEP 1 - GRAVITY LOAD
*Static
1e-10, 1e-10, 1e-15, 1e-10
** 
** LOADS
** 
** Name: GRAVITY-1   Type: Gravity
*Dload
PART-1-1.DAM, GRAV, 9.81, 0., -1.
** 
** OUTPUT REQUESTS
** 
*Restart, write, frequency=0
** 
** FIELD OUTPUT: F-Output-1
** 
*Output, field, frequency=10
*Element Output, directions=YES
DAMAGEC, DAMAGET, LE, PE, PEEQ, PEEQT, S, SDEG
** 
** FIELD OUTPUT: F-Output-2
** 
*Output, field, variable=PRESELECT, frequency=10
** 
** HISTORY OUTPUT: H-Output-1
** 
*Output, history
*Element Output, elset=EOUT
SP1, 
** 
** HISTORY OUTPUT: H-Output-2
** 
*Node Output, nset=NOUT
U1, U2, U3, UR1, UR2, UR3
** 
** HISTORY OUTPUT: H-Output-3
** 
*Output, history, variable=PRESELECT
*End Step
** ----------------------------------------------------------------
** 
** STEP: Step-2
** 
*Step, name=Step-2, nlgeom=YES, unsymm=YES
STEP 2 - HYDROSTATIC LOAD
*Static
1e-10, 1e-10, 1e-15, 1e-10
** 
** OUTPUT REQUESTS
** 
*Restart, write, frequency=0
** 
** FIELD OUTPUT: F-Output-3
** 
*Output, field, frequency=10
*Element Output, directions=YES
DAMAGEC, DAMAGET, LE, PE, PEEQ, PEEQT, S, SDEG
** 
** FIELD OUTPUT: F-Output-4
** 
*Output, field, variable=PRESELECT, frequency=10
** 
** HISTORY OUTPUT: H-Output-4
** 
*Output, history
*Element Output, elset=EOUT
SP1, 
** 
** HISTORY OUTPUT: H-Output-5
** 
*Node Output, nset=NOUT
U1, U2, U3, UR1, UR2, UR3
** 
** HISTORY OUTPUT: H-Output-6
** 
*Output, history, variable=PRESELECT
*End Step
** ----------------------------------------------------------------
** 
** STEP: Step-3
** 
*Step, name=Step-3, nlgeom=YES, inc=2000, unsymm=YES
STEP 3 - EARTHQUAKE
*Dynamic,haftol=1e+07
0.02,10.,1e-15,0.02
** 
** BOUNDARY CONDITIONS
** 
** Name: Acc-BC-1 Type: Acceleration/Angular acceleration
*Boundary, op=NEW, amplitude=HAMP, type=ACCELERATION
NBASE, 1, 1, 9.81
** Name: Acc-BC-2 Type: Acceleration/Angular acceleration
*Boundary, op=NEW, amplitude=VAMP, type=ACCELERATION
NBASE, 2, 2, 9.81
** Name: Disp-BC-1 Type: Displacement/Rotation
*Boundary, op=NEW
** Name: Disp-BC-2 Type: Displacement/Rotation
*Boundary, op=NEW
** 
** CONTROLS
** 
*Controls, reset
*Controls, analysis=discontinuous
** 
** OUTPUT REQUESTS
** 
*Restart, write, frequency=0
** 
** FIELD OUTPUT: F-Output-5
** 
*Output, field
*Element Output, directions=YES
DAMAGEC, DAMAGET, LE, PE, PEEQ, PEEQT, S, SDEG
** 
** FIELD OUTPUT: F-Output-6
** 
*Output, field, variable=PRESELECT
** 
** HISTORY OUTPUT: H-Output-7
** 
*Output, history, frequency=1
*Element Output, elset=EOUT
SP1, 
** 
** HISTORY OUTPUT: H-Output-8
** 
*Node Output, nset=NOUT
U1, U2, U3, UR1, UR2, UR3
** 
** HISTORY OUTPUT: H-Output-9
** 
*Output, history, variable=PRESELECT, frequency=1
*End Step
